Version 4
SHEET 1 880 680
WIRE -80 64 -96 64
WIRE 16 64 -80 64
WIRE 160 64 16 64
WIRE 272 64 160 64
WIRE 16 80 16 64
WIRE 272 128 272 64
WIRE 160 144 160 64
WIRE -640 224 -656 224
WIRE -432 224 -640 224
WIRE -80 224 -80 64
WIRE -80 224 -240 224
WIRE -656 256 -656 224
WIRE 160 256 160 208
WIRE 272 256 272 208
WIRE 272 256 160 256
WIRE -144 288 -240 288
WIRE -32 288 -144 288
WIRE 272 288 272 256
WIRE -432 320 -480 320
WIRE -656 352 -656 336
WIRE -560 352 -560 320
WIRE -560 352 -656 352
WIRE -144 368 -144 288
WIRE -32 368 -32 288
WIRE 96 368 -32 368
WIRE 224 368 96 368
WIRE 272 448 272 384
WIRE -144 480 -144 448
FLAG 416 -96 0
FLAG 416 -176 12V
FLAG 272 448 0
FLAG -96 64 12V
FLAG -656 352 0
FLAG 272 256 EXC
FLAG -144 480 0
FLAG 96 368 SWTCH
FLAG 16 144 0
FLAG -640 224 PWM
SYMBOL ind 256 112 R0
SYMATTR InstName L1
SYMATTR Value 10m
SYMATTR SpiceLine Ipk=1.4 Rser=1 Rpar=16970 Cpar=1.698p
SYMBOL voltage 416 -192 R0
WINDOW 123 0 0 Left 0
WINDOW 39 0 0 Left 0
SYMATTR InstName V1
SYMATTR Value 12
SYMBOL diode 176 208 R180
WINDOW 0 24 64 Left 2
WINDOW 3 24 0 Left 2
SYMATTR InstName D1
SYMATTR Value 1N914
SYMBOL voltage -656 240 R0
WINDOW 0 9 17 Left 2
WINDOW 3 -457 57 Left 2
WINDOW 123 0 0 Left 0
WINDOW 39 0 0 Left 0
SYMATTR InstName PWM
SYMATTR Value PULSE(0 5 0 0.001m 0.001m 0.1m 3m)
SYMBOL nmos 224 288 R0
SYMATTR InstName M1
SYMATTR Value IRFZ44N
SYMBOL Optos\\4N28 -336 288 R0
SYMATTR InstName U1
SYMBOL res -464 304 R90
WINDOW 0 0 56 VBottom 2
WINDOW 3 32 56 VTop 2
SYMATTR InstName R1
SYMATTR Value 330
SYMBOL res -160 352 R0
SYMATTR InstName R2
SYMATTR Value 10K
SYMBOL cap 0 80 R0
SYMATTR InstName C1
SYMATTR Value 47n
TEXT -1012 192 Left 2 !.tran 0 20m 0
